Mineral: Paracetamol
Rruff sample: D120007
Ideal chemistry: C_8_H_9_NO_2_
Locality: Synthetic from Sigma
Source: David Blake
Description: Fine colorless powder. Paracetamol, otherwise known as acetaminophen, is an analgesic and antipyretic.
x	intensity
5	144.95
5.15	127.86
5.3	146.902
5.45	136.944
5.6	131.31
5.75	142.336
5.9	144.611
6.05	137.911
6.2	130.111
6.35	123.651
6.5	124.31
6.65	126.525
6.8	124.564
6.95	127.094
7.1	126.101
7.25	131.091
7.4	129.097
7.55	129.235
7.7	132.394
7.85	126.112
8	135.149
8.15	139.803
8.3	148.54
8.45	157.294
8.6	165.507
8.75	151.594
8.9	143.715
9.05	130.851
9.2	131.175
9.35	126.365
9.5	122.79
9.65	126.313
9.8	129.795
9.95	131.695
10.1	134.518
10.25	132.356
10.4	120.844
10.55	124.796
10.7	117.422
10.85	124.339
11	119.67
11.15	124.037
11.3	120.684
11.45	131.534
11.6	134.337
11.75	133.468
11.9	134.409
12.05	125.678
12.2	118.668
12.35	118.123
12.5	118.983
12.65	122.163
12.8	132.209
12.95	139.162
13.1	125.668
13.25	129.273
13.4	150.487
13.55	201.962
13.7	358.771
13.85	426.614
14	438.313
14.15	358.187
14.3	215.848
14.45	138.565
14.6	129.249
14.75	123.251
14.9	126.714
15.05	123.694
15.2	130.737
15.35	142.207
15.5	121.199
15.65	143.158
15.8	240.63
15.95	510.351
16.1	629.712
16.25	433.674
16.4	193.047
16.55	149.683
16.7	151.103
16.85	149.863
17	152.32
17.15	144.656
17.3	139.634
17.45	158.561
17.6	225.865
17.75	346.1
17.9	693.097
18.05	986.19
18.2	857.842
18.35	450.754
18.5	271.303
18.65	235.205
18.8	219.655
18.95	224.804
19.1	234.321
19.25	271.223
19.4	414.915
19.55	465.006
19.7	302.985
19.85	199.541
20	183.943
20.15	167.302
20.3	176.664
20.45	171.349
20.6	180.984
20.75	207.095
20.9	285.148
21.05	582.385
21.2	760.561
21.35	562.369
21.5	244.341
21.65	155.771
21.8	139.447
21.95	155.93
22.1	155.959
22.25	149.557
22.4	132.446
22.55	133.317
22.7	121.493
22.85	123.753
23	113.356
23.15	125.147
23.3	170.429
23.45	211.396
23.6	276.499
23.75	333.171
23.9	287.284
24.05	232.686
24.2	283.117
24.35	252.636
24.5	150.821
24.65	125.341
24.8	127.441
24.95	124.163
25.1	120.72
25.25	129.144
25.4	123.624
25.55	118.137
25.7	126.32
25.85	130.626
26	135.097
26.15	121.09
26.3	116.317
26.45	111.891
26.6	128.008
26.75	154.145
26.9	216.904
27.05	231.06
27.2	307.083
27.35	583.502
27.5	628.664
27.65	289.458
27.8	146.087
27.95	133.242
28.1	153.454
28.25	331.988
28.4	747.839
28.55	730.637
28.7	365.608
28.85	236.869
29	217.086
29.15	157.951
29.3	129.961
29.45	124.883
29.6	116.452
29.75	105.066
29.9	107.302
30.05	108.8
30.2	109.268
30.35	121.137
30.5	108.779
30.65	175.396
30.8	264.975
30.95	739.19
31.1	871.207
31.25	411.294
31.4	141.004
31.55	173.763
31.7	336.13
31.85	344.129
32	210.377
32.15	111.966
32.3	105.261
32.45	133.028
32.6	155.428
32.75	138.813
32.9	102.454
33.05	100.767
33.2	97.5103
33.35	93.7026
33.5	91.6066
33.65	117.332
33.8	207.309
33.95	314.389
34.1	371.593
34.25	415.402
34.4	304.059
34.55	192.763
34.7	118.867
34.85	101.963
35	108.992
35.15	84.1487
35.3	79.7155
35.45	80.7793
35.6	91.7114
35.75	106.753
35.9	91.5666
36.05	74.9705
36.2	74.3031
36.35	74.8802
36.5	96.0594
36.65	123.033
36.8	104.512
36.95	81.8107
37.1	88.2035
37.25	95.5503
37.4	102.054
37.55	82.8187
37.7	89.3556
37.85	108.682
38	169.89
38.15	246.909
38.3	355.565
38.45	408.873
38.6	301.051
38.75	155.038
38.9	111.783
39.05	104.173
39.2	83.3717
39.35	81.5847
39.5	82.9163
39.65	69.4004
39.8	82.086
39.95	82.5109
40.1	80.0078
40.25	73.8954
40.4	65.2579
40.55	67.7481
40.7	64.8241
40.85	65.8946
41	65.4028
41.15	62.9188
41.3	62.0451
41.45	64.7594
41.6	62.644
41.75	63.4685
41.9	73.3811
42.05	75.0714
42.2	84.4453
42.35	167.51
42.5	234.61
42.65	184.363
42.8	94.3749
42.95	74.1841
43.1	98.0433
43.25	165.56
43.4	179.897
43.55	97.8582
43.7	72.6112
43.85	114.142
44	170.762
44.15	130.813
44.3	75.5479
44.45	84.5338
44.6	74.8709
44.75	74.4081
44.9	70.6135
45.05	88.2986
45.2	124.869
45.35	125.921
45.5	87.9974
45.65	66.9399
45.8	71.9017
45.95	62.2408
46.1	64.9648
46.25	68.2137
46.4	107.513
46.55	103.159
46.7	85.1819
46.85	77.6207
47	110.717
47.15	119.802
47.3	103.366
47.45	81.3722
47.6	81.4467
47.75	106.457
47.9	107.603
48.05	91.9926
48.2	79.4172
48.35	79.6738
48.5	101.201
48.65	146.469
48.8	161.959
48.95	130.337
49.1	85.1887
49.25	69.2962
49.4	72.287
49.55	97.1841
49.7	172.328
49.85	189.56
50	137.935
50.15	79.9065
50.3	90.042
50.45	99.0067
50.6	85.9631
50.75	68.9328
50.9	81.1037
51.05	126.856
51.2	154.439
51.35	122.632
51.5	78.3764
51.65	77.9636
51.8	72.8587
51.95	66.3762
52.1	59.9374
52.25	56.6701
52.4	65.2643
52.55	65.9846
52.7	62.7069
52.85	63.1407
53	64.3216
53.15	78.4602
53.3	73.1416
53.45	60.9772
53.6	64.7429
53.75	83.0235
53.9	75.5946
54.05	56.0518
54.2	61.1361
54.35	82.6709
54.5	91.7237
54.65	74.3431
54.8	63.3241
